@<TRIPOS>MOLECULE  
Molecule  
   12    11     1     0     0  
SMALL  
No Charge or Current Charge  
  
  
@<TRIPOS>ATOM  
      1 N1          -1.5400    -0.6110     0.0530 n3     1 EN     -0.666435
      2 N2           1.5450    -0.5680    -0.1940 n3     1 EN     -0.666442
      3 C3          -0.7110     0.5690    -0.2910 c3     1 EN     -0.066366
      4 C4           0.6950     0.4680     0.3940 c3     1 EN     -0.066366
      5 H5          -2.4680    -0.4800    -0.3490 hn     1 EN      0.279158
      6 H6          -1.8300    -0.5060     1.0240 hn     1 EN      0.280162
      7 H7           2.4020    -0.6430     0.3520 hn     1 EN      0.280158
      8 H8           1.7250    -0.1720    -1.1150 hn     1 EN      0.279156
      9 H9          -0.5110     0.7680    -1.3510 h1     1 EN      0.089769
     10 H10         -1.1580     1.5090     0.0550 h1     1 EN      0.083719
     11 H11          0.5820     0.1840     1.4470 h1     1 EN      0.089765
     12 H12          1.3230     1.3630     0.3050 h1     1 EN      0.083722
@<TRIPOS>BOND  
     1     1     3 1     
     2     1     5 1     
     3     1     6 1     
     4     2     4 1     
     5     2     7 1     
     6     2     8 1     
     7     3     4 1     
     8     3     9 1     
     9     3    10 1     
    10     4    11 1     
    11     4    12 1     
@<TRIPOS>SUBSTRUCTURE  
     1 EN         1 TEMP              0 ****  ****    0 ROOT  
